Version 4
SHEET 1 1896 680
WIRE 48 0 -192 0
WIRE 272 0 48 0
WIRE 496 0 368 0
WIRE 608 0 496 0
WIRE 768 0 688 0
WIRE 800 0 768 0
WIRE 976 0 800 0
WIRE 48 32 48 0
WIRE -192 48 -192 0
WIRE 448 64 320 64
WIRE 768 64 768 0
WIRE 768 64 544 64
WIRE 800 64 800 0
WIRE 48 144 48 112
WIRE 208 144 48 144
WIRE 320 160 320 64
WIRE 320 160 272 160
WIRE -192 176 -192 128
WIRE 48 176 48 144
WIRE 208 176 176 176
WIRE 176 224 176 176
WIRE 720 224 176 224
WIRE 800 224 800 144
WIRE 800 224 720 224
WIRE 48 288 48 240
WIRE 720 304 720 224
WIRE 720 304 640 304
WIRE 640 384 640 304
WIRE 800 384 800 304
WIRE 640 496 640 464
WIRE 800 496 800 464
FLAG -192 176 0
FLAG 48 288 0
FLAG 800 496 0
FLAG 976 0 REG
IOPIN 976 0 Out
FLAG 640 496 0
SYMBOL Opamps\\opamp 240 224 M180
SYMATTR InstName U1
SYMBOL npn 272 64 R270
WINDOW 0 87 -17 VRight 2
WINDOW 3 89 69 VRight 2
SYMATTR InstName Q1
SYMBOL res 32 16 R0
SYMATTR InstName R1
SYMATTR Value 1.0K
SYMBOL zener 32 240 M180
WINDOW 0 24 64 Left 2
WINDOW 3 24 0 Left 2
SYMATTR InstName D1
SYMATTR Value EDZV12B
SYMATTR Description Diode
SYMATTR Type diode
SYMBOL res 784 48 R0
SYMATTR InstName R2
SYMATTR Value 1K
SYMBOL res 784 368 R0
SYMATTR InstName R3
SYMATTR Value 2k
SYMBOL Misc\\battery -192 32 R0
WINDOW 123 0 0 Left 2
WINDOW 39 0 0 Left 2
SYMATTR InstName VS
SYMATTR Value 20V
SYMBOL npn 448 0 M90
WINDOW 0 87 -17 VRight 2
WINDOW 3 89 69 VRight 2
SYMATTR InstName Q2
SYMBOL res 592 -16 M90
WINDOW 0 0 56 VBottom 2
WINDOW 3 32 56 VTop 2
SYMATTR InstName R4
SYMATTR Value 6.5
SYMBOL res 624 368 R0
SYMATTR InstName R5
SYMATTR Value 6K
TEXT -208 256 Left 2 !.tran 0 1 0
TEXT -208 224 Left 2 !.inc .\\opamp.sub
